Circuit: * D:\Tech\Mini Project\Simulations\am.asc

Limiting rise time of source v2 to 1e-005
Limiting fall time of source v2 to 1e-005
.OP point found by inspection.

Date: Thu Feb 28 23:50:24 2019
Total elapsed time: 0.150 seconds.

tnom = 27
temp = 27
method = modified trap
totiter = 3819
traniter = 3819
tranpoints = 1576
accept = 1311
rejected = 265
matrix size = 8
fillins = 0
solver = Normal
Matrix Compiler1: 326 bytes object code size  0.2/0.2/[0.1]
Matrix Compiler2: 560 bytes object code size  0.2/0.2/[0.1]

