Circuit: * D:\Tech\Mini Project\ultrasonic_data_transfer\Simulations\dog_repellent_circuit (2).asc

Limiting rise time of source v2 to 0.005
Limiting fall time of source v2 to 0.005
Direct Newton iteration for .op point succeeded.

Date: Sat Apr 27 09:22:58 2019
Total elapsed time: 0.580 seconds.

tnom = 27
temp = 27
method = modified trap
totiter = 48805
traniter = 48793
tranpoints = 15517
accept = 11416
rejected = 4101
matrix size = 14
fillins = 2
solver = Normal
Matrix Compiler1: 912 bytes object code size  0.7/0.5/[0.4]
Matrix Compiler2: off  [0.5]/0.7/0.6

