Circuit: * D:\Tech\Mini Project\ultrasonic_data_transfer\Simulations\dog_repellent_circuit (2).asc

Limiting rise time of source v2 to 0.005
Limiting fall time of source v2 to 0.005
Direct Newton iteration for .op point succeeded.

Date: Fri Apr 26 15:58:07 2019
Total elapsed time: 0.205 seconds.

tnom = 27
temp = 27
method = modified trap
totiter = 48805
traniter = 48793
tranpoints = 15517
accept = 11416
rejected = 4101
matrix size = 14
fillins = 2
solver = Normal
Matrix Compiler1:      52 opcodes  0.1/[0.1]/0.1
Matrix Compiler2:     100 opcodes  0.1/[0.1]/0.2

