Circuit: * D:\Tech\Mini Project\Simulations\dog_repellent_circuit.asc

Limiting rise time of source v2 to 2.6e-006
Limiting fall time of source v2 to 2.6e-006
Direct Newton iteration for .op point succeeded.

Date: Fri Mar 15 14:03:15 2019
Total elapsed time: 3.591 seconds.

tnom = 27
temp = 27
method = modified trap
totiter = 216872
traniter = 216837
tranpoints = 80684
accept = 58730
rejected = 21954
matrix size = 26
fillins = 14
solver = Normal
Matrix Compiler1: 2.65 KB object code size  1.8/1.0/[0.8]
Matrix Compiler2: off  [0.8]/1.3/1.0

