Circuit: * D:\Tech\Mini Project\ultrasonic_data_transfer\Simulations\dog_repellent_circuit.asc

Limiting rise time of source v2 to 2.6e-006
Limiting fall time of source v2 to 2.6e-006
Direct Newton iteration for .op point succeeded.

Date: Fri Apr 26 08:03:50 2019
Total elapsed time: 0.436 seconds.

tnom = 27
temp = 27
method = modified trap
totiter = 22891
traniter = 22856
tranpoints = 8675
accept = 6536
rejected = 2139
matrix size = 26
fillins = 14
solver = Normal
Matrix Compiler1: 2.65 KB object code size  1.1/0.7/[0.5]
Matrix Compiler2: off  [0.5]/0.8/0.6

