Circuit: * D:\Tech\Mini Project\Simulations\dog_repellent_circuit (2).asc

Limiting rise time of source v2 to 0.005
Limiting fall time of source v2 to 0.005
Direct Newton iteration for .op point succeeded.

Date: Thu Feb 28 23:30:38 2019
Total elapsed time: 0.431 seconds.

tnom = 27
temp = 27
method = modified trap
totiter = 48805
traniter = 48793
tranpoints = 15517
accept = 11416
rejected = 4101
matrix size = 14
fillins = 2
solver = Normal
Matrix Compiler1: 912 bytes object code size  0.5/0.3/[0.3]
Matrix Compiler2: off  [0.3]/0.4/0.4

