Circuit: * D:\Tech\Mini Project\ultrasonic_data_transfer\Simulations\Receiver Circuit.asc

Direct Newton iteration failed to find .op point.  (Use ".option noopiter" to skip.)
Starting Gmin stepping
Gmin = 10
Gmin = 1.07374
Gmin = 0.115292
Gmin = 0.0123794
Gmin = 0.00132923
Gmin = 0.000142725
Gmin = 1.5325e-005
vernier = 0.5
vernier = 0.25
vernier = 0.125
vernier = 0.0625
Gmin = 5.02168e-006
vernier = 0.03125
vernier = 0.015625
vernier = 0.0078125
vernier = 0.00390625
vernier = 0.00195313
vernier = 0.000976563
vernier = 0.000488281
Gmin = 0
Gmin stepping failed

Starting source stepping with srcstepmethod=0
Source Step = 3.0303%
vernier = 0.25
Source Step = 0.0177557%
Starting source stepping with srcstepmethod=1
Source Step = 3.0303%
vernier = 0.25
Source stepping failed

Pseudo transient terminated at 101.424 s, solution accepted ready or not!

Date: Fri Apr 26 22:45:50 2019
Total elapsed time: 0.340 seconds.

tnom = 27
temp = 27
method = modified trap
totiter = 13239
traniter = 4924
tranpoints = 1940
accept = 1631
rejected = 328
matrix size = 11
fillins = 2
solver = Normal
Matrix Compiler1:      27 opcodes  0.1/[0.1]/0.1
Matrix Compiler2: 919 bytes object code size  0.4/0.7/[0.5]

